/*--------------------------------*- C++ -*----------------------------------*\
| =========                 |                                                |
| \\      /  F ield         | OpenFOAM GUI Project: creativeFields           |
|  \\    /   O peration     | Version:  0.8.9.0                                  |
|   \\  /    A nd           | Web: www.c-fields.com                                       |
|    \\/     M anipulation  |                                                |
\*---------------------------------------------------------------------------*/

FoamFile
{
    version 2;
    format ascii;
    class dictionary;
    location "system";
    object meshDict;
}

// * * * * * * * * * * * * * * * * * * * * * * * * * * * * * * * * * * * * * //

maxCellSize 3.0;
minCellSize 0.7;

surfaceFile "constant/triSurface/porousMesh.stl";

//boundaryLayers
//{
//    nLayers         2;
//    thicknessRatio  1.2;
//}

// ************************************************************************* //
